Version 4
SHEET 1 2184 760
WIRE 144 -96 48 -96
WIRE 240 -96 144 -96
WIRE 336 -96 240 -96
WIRE 544 -96 336 -96
WIRE 816 -96 544 -96
WIRE 864 -96 816 -96
WIRE 144 -64 144 -96
WIRE 240 -64 240 -96
WIRE 544 -32 544 -96
WIRE 144 32 144 0
WIRE 240 32 240 0
WIRE 336 32 336 -96
WIRE 384 32 336 32
WIRE 736 32 704 32
WIRE 832 32 800 32
WIRE 864 32 864 -96
WIRE 960 32 864 32
WIRE 1280 32 1088 32
WIRE 1376 32 1280 32
WIRE 1504 32 1376 32
WIRE 1616 32 1504 32
WIRE 48 80 48 -96
WIRE 1504 80 1504 32
WIRE 1280 96 1280 32
WIRE 1376 96 1376 32
WIRE 1616 96 1616 32
WIRE 384 128 336 128
WIRE 864 128 864 32
WIRE 864 128 704 128
WIRE 960 128 896 128
WIRE 48 192 48 160
WIRE 256 224 224 224
WIRE 384 224 320 224
WIRE 816 224 704 224
WIRE 1152 224 1088 224
WIRE 1280 224 1280 160
WIRE 1280 224 1216 224
WIRE 1376 224 1376 160
WIRE 1376 224 1280 224
WIRE 1520 224 1376 224
WIRE 1616 224 1616 176
WIRE 1616 224 1520 224
WIRE 1280 288 1280 224
WIRE 256 320 224 320
WIRE 384 320 336 320
WIRE 896 320 896 256
WIRE 896 320 704 320
WIRE 896 352 896 320
WIRE 1280 384 1280 368
WIRE 1280 384 1168 384
WIRE 1280 400 1280 384
WIRE 144 416 112 416
WIRE 256 416 208 416
WIRE 384 416 336 416
WIRE 768 416 704 416
WIRE 896 464 896 432
WIRE 544 512 544 480
WIRE 768 512 768 416
WIRE 1168 512 1168 384
WIRE 1168 512 768 512
WIRE 1280 512 1280 480
FLAG 1520 224 VOUT
FLAG 544 512 0
FLAG 48 192 0
FLAG 144 32 0
FLAG 240 32 0
FLAG 336 128 0
FLAG 224 224 0
FLAG 224 320 0
FLAG 112 416 0
FLAG 1280 512 0
FLAG 896 464 0
FLAG 832 32 0
FLAG 1504 80 0
FLAG 816 -96 VIN
SYMBOL voltage 48 64 R0
WINDOW 3 24 44 Left 2
WINDOW 123 0 0 Left 2
WINDOW 39 24 72 Left 2
SYMATTR Value 3.7
SYMATTR SpiceLine Rser=20m
SYMATTR InstName V1
SYMBOL PowerProducts\\LT3759 544 224 R0
SYMATTR InstName U1
SYMBOL res 880 336 R0
SYMATTR InstName R1
SYMATTR Value 10m
SYMATTR SpiceLine tol=1 pwr=0.1
SYMBOL diode 1152 240 R270
WINDOW 0 32 32 VTop 2
WINDOW 3 0 32 VBottom 2
SYMATTR InstName D1
SYMATTR Value RFU02VS6S
SYMBOL cap 1264 96 R0
SYMATTR InstName C1
SYMATTR Value 1.2µ
SYMATTR SpiceLine V=200 Irms=4.41 Rser=0.0220943 Lser=0 mfg="KEMET" pn="C1825C125K2RAC" type="X7R"
SYMBOL cap 1360 96 R0
SYMATTR InstName C2
SYMATTR Value 1µ
SYMATTR SpiceLine V=200 Irms=3.96 Rser=0.0234673 Lser=0 mfg="KEMET" pn="C1825C105K2RAC" type="X7R"
SYMBOL cap 224 -64 R0
SYMATTR InstName C3
SYMATTR Value 0.1µ
SYMATTR SpiceLine V=25 Irms=2.1 Rser=0.0606238 Lser=0 mfg="KEMET" pn="C1210C104K3RAC" type="X7R"
SYMBOL cap 128 -64 R0
SYMATTR InstName C4
SYMATTR Value 100µ
SYMATTR SpiceLine V=25 Irms=18.5 Rser=0.00262245 Lser=0
SYMBOL cap 320 208 R90
WINDOW 0 0 32 VBottom 2
WINDOW 3 32 32 VTop 2
SYMATTR InstName C5
SYMATTR Value 150n
SYMATTR SpiceLine V=50 Irms=1.11 Rser=0.0283161 Lser=0
SYMBOL res 352 304 R90
WINDOW 0 0 56 VBottom 2
WINDOW 3 32 56 VTop 2
SYMATTR InstName R2
SYMATTR Value 86.6K
SYMATTR SpiceLine tol=1 pwr=0.1
SYMBOL res 352 400 R90
WINDOW 0 0 56 VBottom 2
WINDOW 3 32 56 VTop 2
SYMATTR InstName R3
SYMATTR Value 300k
SYMATTR SpiceLine tol=1 pwr=0.1
SYMBOL cap 208 400 R90
WINDOW 0 0 32 VBottom 2
WINDOW 3 32 32 VTop 2
SYMATTR InstName C6
SYMATTR Value 500p
SYMATTR SpiceLine V=16 Irms=647m Rser=0.0322889 Lser=0
SYMBOL cap 800 16 R90
WINDOW 0 0 32 VBottom 2
WINDOW 3 32 32 VTop 2
SYMATTR InstName C7
SYMATTR Value 4.7µ
SYMATTR SpiceLine V=50 Irms=0 Rser=0.004 Lser=0 mfg="TDK" pn="C575OX7RIH475M" type="X7R"
SYMBOL res 1264 272 R0
SYMATTR InstName R4
SYMATTR Value 1.6Meg
SYMATTR SpiceLine tol=1 pwr=0.1
SYMBOL res 1264 384 R0
SYMATTR InstName R5
SYMATTR Value 13k
SYMATTR SpiceLine tol=1 pwr=0.1
SYMBOL load2 1616 96 R0
WINDOW 123 0 0 Left 2
WINDOW 39 0 0 Left 2
SYMATTR InstName I1
SYMATTR Value PULSE(0 -0.002 16m)
SYMBOL WurthTransformers\\750312367 1088 32 M0
SYMATTR SpiceModel 750312367_Saturation
SYMATTR InstName U2
SYMBOL EPCGaN 816 224 R0
WINDOW 3 17 43 Left 2
SYMATTR InstName U3
SYMATTR Value EPC2016
TEXT 1696 496 Left 2 !.tran 0 40m 1m
